/batch
/config,noeldb,1     ! force off writing results to database
*get,_wallstrt,active,,time,wall
! ANSYS input file written by Workbench version 2026 R1
! File used for geometry attach: C:\Users\lola\AppData\Local\Temp\WB_lola_14320_2\wbnew_files\dp0\SYS\DM\SYS.dsco
/title,wbnew--Static Structural (A5)
! ****** Begin Custom Load Command Snippet ******
/COM, ACT Extensions:
/COM,     LSDYNA, 2026.1
/COM,     5f463412-bd3e-484b-87e7-cbc0a665e474, wbex
/COM,     ANSYSMotion, 2026.1
/COM,     20180725-3f81-49eb-9f31-41364844c769, wbex
! ****** End   Custom Load Command Snippet ******
*DIM,_wb_ProjectScratch_dir,string,248
_wb_ProjectScratch_dir(1) = 'C:\Users\lola\AppData\Local\Temp\WB_lola_14320_2\_ProjectScratch\Scr1324\'
*DIM,_wb_SolverFiles_dir,string,248
_wb_SolverFiles_dir(1) = 'C:\Users\lola\AppData\Local\Temp\WB_lola_14320_2\wbnew_files\dp0\SYS\MECH\'
*DIM,_wb_userfiles_dir,string,248
_wb_userfiles_dir(1) = 'C:\Users\lola\AppData\Local\Temp\WB_lola_14320_2\wbnew_files\user_files\'
/com,--- Data in consistent MKS units. See Solving Units in the help system for more information.
/units,MKS
/nopr
/wb,file,start              !  signify a WB generated input file
/prep7
! Turn off shape checking because checks already performed inside WB mesher.
! See help system for more information.
SHPP,OFF,,NOWARN
/nolist
etcon,set             ! allow ANSYS to choose best KEYOP's for 180x elements, resets any applicable keyopt to MAPDL defaults
/com,*********** Send User Defined Coordinate System(s) ***********
csys,0
/com,*********** Nodes for the whole assembly ***********
nblock,3,,9020
(1i9,3e20.9e3)
     7715     2.849874301E-03     4.599930546E-03     4.900000000E-02
     7716     2.849874301E-03     4.599930546E-03     5.000000000E-02
     7717     2.849874301E-03     4.599930546E-03     5.100000000E-02
     7718     2.849874301E-03     4.599930546E-03     5.200000000E-02
     7719     2.849874301E-03     4.599930546E-03     5.300000000E-02
     7720     2.849874301E-03     4.599930546E-03     5.400000000E-02
     7721     2.849874301E-03     4.599930546E-03     5.500000000E-02
     7722     2.849874301E-03     4.599930546E-03     5.600000000E-02
     7723     2.849874301E-03     4.599930546E-03     5.700000000E-02
     7724     2.849874301E-03     4.599930546E-03     5.800000000E-02
     7725     2.849874301E-03     4.599930546E-03     5.900000000E-02
     7726     2.849874301E-03     4.599930546E-03     6.000000000E-02
     7727     2.849874301E-03     4.599930546E-03     6.100000000E-02
     7728     2.849874301E-03     4.599930546E-03     6.200000000E-02
     7729     2.849874301E-03     4.599930546E-03     6.300000000E-02
     7730     2.849874301E-03     4.599930546E-03     6.400000000E-02
     7731     2.849874301E-03     4.599930546E-03     6.500000000E-02
     7732     1.850000000E-03     4.625000000E-03     4.900000000E-02
     7733     1.850000000E-03     4.625000000E-03     5.000000000E-02
     7734     1.850000000E-03     4.625000000E-03     5.100000000E-02
! ... 8181 like lines cut
/wb,elem,start            !  set before creation of elements
/com,*********** Elements for Body 1 'SYS\Body1' ***********
et,1,187
MAT,1 $ TYPE,1 $ REAL,1 $ SECNUM,1 $ ESYS,0    ! ELEMNODES = 10
eblock,21,COMPACT,,1153
(21i9)
        1        5      110      111      379      403     1103      404      406     1107     1110
        2        4      353        5      379      400      405      397      401     2260      406
        3        4        5      111      379      397      404      398      401      406     1110
        4      110      379      348      111     1107     2254     1105     1103     1110     1109
        5       21      101      348      379      510     1065      513      515     1066     2254
        6       20      379      101       21      508     1066      504      500      515      510
        7       21      348      353      379      513     2253      514      515     2254     2260
        8       20      353      379       21      507     2260      508      500      514      515
        9        4      111      112      379      398     1108      399      401     1110     1112
       10      111      348      112      379     1109     1111     1108     1110     2254     1112
       11        3      379      353        4      396     2260      395      391      401      400
       12      100      348      101      379     1060     1065     1057     1061     2254     1066
       13       20      101      379      100      504     1066      508      503     1057     1061
       14        3       20      353      379      392      507      395      396      508     2260
       15        3      112      379        4      394     1112      396      391      399      401
       16       20      379      112      100      508     1112      505      503     1061     1058
       17      100      112      348      379     1058     1111     1060     1061     1112     2254
       18        3      112       20      379      394      505      392      396     1112      508
       19       55      137      378      375      766     1247      772      771     1246     2274
       20       55      138      378      137      767     1252      772      766     1242     1247
! ... 1134 like lines cut
secnum,1    ! reset the section ID to default
! Material Id = {69D234AF-2D7A-4089-9986-CC6C8D84B222}
/com,*********** Elements for Body 2 'SYS\Body2' ***********
et,2,187
MAT,1 $ TYPE,2 $ REAL,2 $ SECNUM,2 $ ESYS,0    ! ELEMNODES = 10
eblock,21,COMPACT,,2653
(21i9)
     1154     2972     3233     2973     3227     7033     7041     7027     7032     7712     7040
     1155     2970     3233     2973     2972     7021     7041     7016     7015     7033     7027
     1156     2973     3233     3160     3186     7041     7639     7037     7039     7689     7635
     1157     2971     2973     3233     3160     7022     7041     7026     7023     7037     7639
     1158     2970     2971     2973     3233     7014     7022     7016     7021     7026     7041
     1159     3166     3186     3233     3227     7664     7689     7668     7665     7687     7712
     1160     3160     3233     3166     3186     7639     7668     7634     7635     7689     7664
     1161     2972     3161     3233     3227     7031     7648     7033     7032     7646     7712
     1162     2970     3233     2972     3161     7021     7033     7015     7017     7648     7031
     1163     2970     2971     3233     3187     7014     7026     7021     7019     7024     7693
     1164     2971     3160     3233     3187     7023     7639     7026     7024     7636     7693
     1165     3161     3233     3166     3230     7648     7668     7642     7647     7714     7666
     1166     3161     3187     3233     3230     7645     7693     7648     7647     7692     7714
     1167     3160     3166     3233     3230     7634     7668     7639     7638     7666     7714
     1168     3160     3233     3187     3230     7639     7693     7636     7638     7714     7692
     1169     3161     3166     3233     3227     7642     7668     7648     7646     7665     7712
     1170     2970     3233     3161     3187     7021     7648     7017     7019     7693     7645
     1171     2802     3232     3117     2803     6419     7521     6411     6407     6424     6420
     1172     2802     3153     3232     3166     6412     7613     6419     6416     7608     7667
     1173     2802     3117     3232     3153     6411     7521     6419     6412     7519     7613
! ... 2634 like lines cut
secnum,1    ! reset the section ID to default
! Material Id = {C040C439-5F2A-431F-81FE-52A7D18070C2}
/com,*********** Elements for Body 3 'SYS\Body3' ***********
et,3,186
keyo,3,2,1          ! set full integration on SOLID186
MAT,1 $ TYPE,3 $ REAL,3 $ SECNUM,3 $ ESYS,0    ! ELEMNODES = 20
eblock,21,COMPACT,,54
(21i9)
     3807     7760     7763     7799     7850     7761     7764     7798     7848     7977     7984     8087     7978     7979     7985     8085     7980     7976     7983     8084     8184
     3808     7759     7849     7797     7762     7761     7848     7798     7764     7975     8083     7982     7974     7980     8085     7985     7979     7973     8183     8082     7981
     3809     7715     7732     7749     7750     7849     7797     7762     7759     7868     7920     7954     7869     8083     7982     7974     7975     7870     7921     7955     7956
     3810     7796     7798     7848     7846     7800     7799     7850     7851     8079     8085     8180     8081     8086     8087     8185     8089     8080     8084     8184     8181
     3811     7795     7797     7849     7847     7796     7798     7848     7846     8077     8083     8182     8078     8079     8085     8180     8081     8076     8082     8183     8179
     3812     7715     7716     7733     7732     7849     7847     7795     7797     7867     7872     7919     7868     8182     8078     8077     8083     7870     7873     7923     7921
     3813     7794     7796     7846     7844     7801     7800     7851     7852     8073     8081     8176     8075     8088     8089     8186     8091     8074     8080     8181     8177
     3814     7793     7795     7847     7845     7794     7796     7846     7844     8071     8078     8178     8072     8073     8081     8176     8075     8070     8076     8179     8175
     3815     7716     7717     7734     7733     7847     7845     7793     7795     7871     7875     7922     7872     8178     8072     8071     8078     7873     7876     7925     7923
     3816     7792     7794     7844     7842     7802     7801     7852     7853     8067     8075     8172     8069     8090     8091     8187     8093     8068     8074     8177     8173
     3817     7791     7793     7845     7843     7792     7794     7844     7842     8065     8072     8174     8066     8067     8075     8172     8069     8064     8070     8175     8171
     3818     7717     7718     7735     7734     7845     7843     7791     7793     7874     7878     7924     7875     8174     8066     8065     8072     7876     7879     7927     7925
     3819     7790     7792     7842     7840     7803     7802     7853     7854     8061     8069     8168     8063     8092     8093     8188     8095     8062     8068     8173     8169
     3820     7789     7791     7843     7841     7790     7792     7842     7840     8059     8066     8170     8060     8061     8069     8168     8063     8058     8064     8171     8167
     3821     7718     7719     7736     7735     7843     7841     7789     7791     7877     7881     7926     7878     8170     8060     8059     8066     7879     7882     7929     7927
     3822     7788     7790     7840     7838     7804     7803     7854     7855     8055     8063     8164     8057     8094     8095     8189     8097     8056     8062     8169     8165
     3823     7787     7789     7841     7839     7788     7790     7840     7838     8053     8060     8166     8054     8055     8063     8164     8057     8052     8058     8167     8163
     3824     7719     7720     7737     7736     7841     7839     7787     7789     7880     7884     7928     7881     8166     8054     8053     8060     7882     7885     7931     7929
     3825     7786     7788     7838     7836     7805     7804     7855     7856     8049     8057     8160     8051     8096     8097     8190     8099     8050     8056     8165     8161
     3826     7785     7787     7839     7837     7786     7788     7838     7836     8047     8054     8162     8048     8049     8057     8160     8051     8046     8052     8163     8159
! ... 35 like lines cut
secnum,1    ! reset the section ID to default
! Material Id = {97644ECE-A364-44CB-85C2-2433AD248A80}
/wb,elem,end               !  done creating elements
toffst,273.15,      ! Temperature offset from absolute zero
/com,*********** Set Reference Temperature ***********
tref,22.
/wb,mat,start              !  starting to send materials
/com,*********** Send Materials ***********
Temperature = 'TEMP' ! Temperature
MP,DENS,1,1339,	! kg m^-3
MP,EX,1,2898000000,	! Pa
MP,NUXY,1,0.3887,
MP,ALPX,1,0.000117,	! C^-1
MP,KXX,1,0.1702,	! W m^-1 C^-1
MP,C,1,1199,	! J kg^-1 C^-1
MP,RSVX,1,9950000000000,	! kg m^3 A^-2 s^-3
MP,LSST,1,0.004583,
MP,PERX,1,3.599,
MP,UVID,1,1b2285f1-90b8-46a0-b562-196f28d9536b
MP,UMID,1,5cc4945b-4e18-4193-9590-e343a797919c

/wb,mat,end                !  done sending materials
!************************* Model Summary ********************
! SYS\Body1,	Plastic, PET (amorphous),	matid,	1
! SYS\Body2,	Plastic, PET (amorphous),	matid,	1
! SYS\Body3,	Plastic, PET (amorphous),	matid,	1
!************************* End Model Summary ********************
! get the diagonal of the bounding box. Needed later for other things
*get,_xmin,node,,mnloc,x
*get,_ymin,node,,mnloc,y
*get,_zmin,node,,mnloc,z
*get,_xmax,node,,mxloc,x
*get,_ymax,node,,mxloc,y
*get,_zmax,node,,mxloc,z
_ASMDIAG=(_xmax-_xmin)*(_xmax-_xmin)+(_ymax-_ymin)*(_ymax-_ymin)+(_zmax-_zmin)*(_zmax-_zmin)
_ASMDIAG=SQRT(_ASMDIAG)
/wb,contact,start          !  starting to send contact
/com,*********** Create Contact "Contact Region" ***********
/com,            Real Constant Set For Above Contact Is 5 & 4 
*set,tid,5
*set,cid,4
r,tid
r,cid
et,tid,170
et,cid,174
MAT,5 $ TYPE,5 $ REAL,5 $ SECNUM,5 $ ESYS,0    ! ELEMNODES = 8
eblock,21,COMPACT,,8
(21i9)
     6453       17      115      116      116      486     1119      116      487
     6454       19      113      114      114      495     1113      114      496
     6455       17       18      115      115      484      492      115      486
     6456       16      116       98       98      483     1055       98      481
     6457       18      114      115      115      491     1116      115      492
     6458       16       17      116      116      478      487      116      483
     6459       18       19      114      114      490      496      114      491
     6460        6      113       19       19      410      495       19      408
-1
secnum,1    ! reset the section ID to default
MAT,4 $ TYPE,4 $ REAL,4 $ SECNUM,4 $ ESYS,0    ! ELEMNODES = 8
eblock,21,COMPACT,,8
(21i9)
     6461       17      115      116      116      486     1119      116      487
     6462       19      113      114      114      495     1113      114      496
     6463       17       18      115      115      484      492      115      486
     6464       16      116       98       98      483     1055       98      481
     6465       18      114      115      115      491     1116      115      492
     6466       16       17      116      116      478      487      116      483
     6467       18       19      114      114      490      496      114      491
     6468        6      113       19       19      410      495       19      408
-1
secnum,1    ! reset the section ID to default
MAT,4 $ TYPE,4 $ REAL,5 $ SECNUM,4 $ ESYS,0    ! ELEMNODES = 8
eblock,21,COMPACT,,10
(21i9)
     6469     2298     2748     2838     2838     3376     6174     2838     3377
     6470     2747     2835     2837     2837     6170     6536     2837     6171
     6471     2748     2836     2838     2838     6173     6538     2838     6174
     6472     2299     2837     2595     2595     3381     5359     2595     3378
     6473     2594     2838     2836     2836     5355     6538     2836     5354
     6474     2595     2836     2748     2748     5358     6173     2748     5357
     6475     2299     2595     2748     2748     3378     5357     2748     3380
     6476     2593     2837     2835     2835     5352     6536     2835     5351
     6477     2299     2747     2837     2837     3379     6171     2837     3381
     6478     2296     2835     2747     2747     3368     6170     2747     3367
-1
secnum,1    ! reset the section ID to default
MAT,5 $ TYPE,5 $ REAL,4 $ SECNUM,5 $ ESYS,0    ! ELEMNODES = 8
eblock,21,COMPACT,,10
(21i9)
     6479     2298     2748     2838     2838     3376     6174     2838     3377
     6480     2747     2835     2837     2837     6170     6536     2837     6171
     6481     2748     2836     2838     2838     6173     6538     2838     6174
     6482     2299     2837     2595     2595     3381     5359     2595     3378
     6483     2594     2838     2836     2836     5355     6538     2836     5354
     6484     2595     2836     2748     2748     5358     6173     2748     5357
     6485     2299     2595     2748     2748     3378     5357     2748     3380
     6486     2593     2837     2835     2835     5352     6536     2835     5351
     6487     2299     2747     2837     2837     3379     6171     2837     3381
     6488     2296     2835     2747     2747     3368     6170     2747     3367
-1
secnum,1    ! reset the section ID to default
keyo,cid,8,2               ! auto create asymmetric contact (from Program Controlled setting)
keyo,cid,10,0              ! adjust contact stiffness each NR iteration (from Program Controlled setting)
keyo,cid,12,5              ! bonded always
keyo,cid,18,1              ! small sliding turned on by application
keyo,cid,2,2               ! MPC for bonded contacts (from Program Controlled setting)
keyo,tid,5,0               ! Automatic constraint type detection
keyo,cid,4,2               ! on nodal point - normal to target surface (from Program Controlled setting)
keyo,cid,9,1               ! ignore initial gaps/penetration
keyo,cid,7,0               ! No Prediction
rmod,tid,3,10.      ! FKN
rmod,tid,5,0.       ! ICONT
rmod,tid,6,0.       ! PINB
rmod,tid,10,0.      ! CNOF
rmod,tid,12,0.      ! FKT
rmod,tid,36,32      ! WB DSID
rmod,cid,3,10.      ! FKN
rmod,cid,5,0.       ! ICONT
rmod,cid,6,0.       ! PINB
rmod,cid,10,0.      ! CNOF
rmod,cid,12,0.      ! FKT
rmod,cid,36,32      ! WB DSID
/com,*********** Create Contact "Contact Region 2" ***********
/com,            Real Constant Set For Above Contact Is 7 & 6 
*set,tid,7
*set,cid,6
r,tid
r,cid
et,tid,170
et,cid,174
MAT,7 $ TYPE,7 $ REAL,7 $ SECNUM,7 $ ESYS,0    ! ELEMNODES = 8
eblock,21,COMPACT,,40
(21i9)
     6489     2506     2513     2507     2507     4820     4827     2507     4818
     6490     2511     2505     2504     2504     4811     4802     2504     4804
     6491     2500     2507     2501     2501     4780     4784     2501     4779
     6492     2501     2507     2514     2514     4784     4828     2514     4785
     6493     2502     2509     2503     2503     4788     4793     2503     4787
     6494     2506     2512     2513     2513     4819     4856     2513     4820
     6495     2512     2505     2511     2511     4812     4811     2511     4850
     6496     2507     2513     2514     2514     4827     4862     2514     4828
     6497     2505     2512     2506     2506     4812     4819     2506     4810
     6498     2499     2501     2514     2514     4775     4785     2514     4776
     6499     2503     2509     2510     2510     4793     4842     2510     4794
     6500     2508     2510     2509     2509     4838     4842     2509     4837
     6501     2511     2504     2510     2510     4804     4803     2510     4844
     6502     2510     2504     2503     2503     4803     4792     2503     4794
     6503     2508     3024     2510     2510     4840     4848     2510     4838
     6504     2589     2499     3023     3023     4777     4778     3023     5338
     6505     2511     2510     3014     3014     4844     4847     3014     4853
     6506     2512     2511     3015     3015     4850     4854     3015     4859
     6507     2513     2512     3016     3016     4856     4860     3016     4865
     6508     2514     2513     3017     3017     4862     4866     3017     4870
! ... 21 like lines cut
secnum,1    ! reset the section ID to default
MAT,6 $ TYPE,6 $ REAL,6 $ SECNUM,6 $ ESYS,0    ! ELEMNODES = 8
eblock,21,COMPACT,,40
(21i9)
     6529     2506     2513     2507     2507     4820     4827     2507     4818
     6530     2511     2505     2504     2504     4811     4802     2504     4804
     6531     2500     2507     2501     2501     4780     4784     2501     4779
     6532     2501     2507     2514     2514     4784     4828     2514     4785
     6533     2502     2509     2503     2503     4788     4793     2503     4787
     6534     2506     2512     2513     2513     4819     4856     2513     4820
     6535     2512     2505     2511     2511     4812     4811     2511     4850
     6536     2507     2513     2514     2514     4827     4862     2514     4828
     6537     2505     2512     2506     2506     4812     4819     2506     4810
     6538     2499     2501     2514     2514     4775     4785     2514     4776
     6539     2503     2509     2510     2510     4793     4842     2510     4794
     6540     2508     2510     2509     2509     4838     4842     2509     4837
     6541     2511     2504     2510     2510     4804     4803     2510     4844
     6542     2510     2504     2503     2503     4803     4792     2503     4794
     6543     2508     3024     2510     2510     4840     4848     2510     4838
     6544     2589     2499     3023     3023     4777     4778     3023     5338
     6545     2511     2510     3014     3014     4844     4847     3014     4853
     6546     2512     2511     3015     3015     4850     4854     3015     4859
     6547     2513     2512     3016     3016     4856     4860     3016     4865
     6548     2514     2513     3017     3017     4862     4866     3017     4870
! ... 21 like lines cut
secnum,1    ! reset the section ID to default
MAT,6 $ TYPE,6 $ REAL,7 $ SECNUM,6 $ ESYS,0    ! ELEMNODES = 8
eblock,21,COMPACT,,36
(21i9)
     6569     7850     7799     7763     7760     8087     7984     7977     7978
     6570     7851     7800     7799     7850     8089     8086     8087     8185
     6571     7852     7801     7800     7851     8091     8088     8089     8186
     6572     7853     7802     7801     7852     8093     8090     8091     8187
     6573     7854     7803     7802     7853     8095     8092     8093     8188
     6574     7855     7804     7803     7854     8097     8094     8095     8189
     6575     7856     7805     7804     7855     8099     8096     8097     8190
     6576     7857     7806     7805     7856     8101     8098     8099     8191
     6577     7858     7807     7806     7857     8103     8100     8101     8192
     6578     7859     7808     7807     7858     8105     8102     8103     8193
     6579     7860     7809     7808     7859     8107     8104     8105     8194
     6580     7861     7810     7809     7860     8109     8106     8107     8195
     6581     7862     7811     7810     7861     8111     8108     8109     8196
     6582     7863     7812     7811     7862     8113     8110     8111     8197
     6583     7864     7813     7812     7863     8115     8112     8113     8198
     6584     7865     7814     7813     7864     8117     8114     8115     8199
     6585     7866     7815     7814     7865     8118     8116     8117     8200
     6586     7754     7756     7815     7866     7964     7969     8118     7965
     6587     7749     7732     7715     7750     7920     7868     7869     7954
     6588     7732     7733     7716     7715     7919     7872     7867     7868
! ... 17 like lines cut
secnum,1    ! reset the section ID to default
MAT,7 $ TYPE,7 $ REAL,6 $ SECNUM,7 $ ESYS,0    ! ELEMNODES = 8
eblock,21,COMPACT,,36
(21i9)
     6605     7850     7799     7763     7760     8087     7984     7977     7978
     6606     7851     7800     7799     7850     8089     8086     8087     8185
     6607     7852     7801     7800     7851     8091     8088     8089     8186
     6608     7853     7802     7801     7852     8093     8090     8091     8187
     6609     7854     7803     7802     7853     8095     8092     8093     8188
     6610     7855     7804     7803     7854     8097     8094     8095     8189
     6611     7856     7805     7804     7855     8099     8096     8097     8190
     6612     7857     7806     7805     7856     8101     8098     8099     8191
     6613     7858     7807     7806     7857     8103     8100     8101     8192
     6614     7859     7808     7807     7858     8105     8102     8103     8193
     6615     7860     7809     7808     7859     8107     8104     8105     8194
     6616     7861     7810     7809     7860     8109     8106     8107     8195
     6617     7862     7811     7810     7861     8111     8108     8109     8196
     6618     7863     7812     7811     7862     8113     8110     8111     8197
     6619     7864     7813     7812     7863     8115     8112     8113     8198
     6620     7865     7814     7813     7864     8117     8114     8115     8199
     6621     7866     7815     7814     7865     8118     8116     8117     8200
     6622     7754     7756     7815     7866     7964     7969     8118     7965
     6623     7749     7732     7715     7750     7920     7868     7869     7954
     6624     7732     7733     7716     7715     7919     7872     7867     7868
! ... 17 like lines cut
secnum,1    ! reset the section ID to default
keyo,cid,8,2               ! auto create asymmetric contact (from Program Controlled setting)
keyo,cid,10,0              ! adjust contact stiffness each NR iteration (from Program Controlled setting)
keyo,cid,12,5              ! bonded always
keyo,cid,18,1              ! small sliding turned on by application
keyo,cid,2,2               ! MPC for bonded contacts (from Program Controlled setting)
keyo,tid,5,0               ! Automatic constraint type detection
keyo,cid,4,2               ! on nodal point - normal to target surface (from Program Controlled setting)
keyo,cid,9,1               ! ignore initial gaps/penetration
keyo,cid,7,0               ! No Prediction
rmod,tid,3,10.      ! FKN
rmod,tid,5,0.       ! ICONT
rmod,tid,6,0.       ! PINB
rmod,tid,10,0.      ! CNOF
rmod,tid,12,0.      ! FKT
rmod,tid,36,35      ! WB DSID
rmod,cid,3,10.      ! FKN
rmod,cid,5,0.       ! ICONT
rmod,cid,6,0.       ! PINB
rmod,cid,10,0.      ! CNOF
rmod,cid,12,0.      ! FKT
rmod,cid,36,35      ! WB DSID
nsel,all
esel,all
/wb,contact,end            !  done creating contacts
/golist
/wb,load,start             !  starting to send loads
/com,*********** Fixed Supports ***********
CMBLOCK,_FIXEDSU,NODE,      101
(8i10)
         1        -5        29       -31        44       -46        59        60
        72       -74        96        97       109      -112       126       127
       209       210       220      -223       232       233       242      -246
       256      -262       382       384      -386       388      -391       393
       394       397      -399       403       404       572       574      -576
       578       580       583       584       676       678       679       682
      -684       688       689       792       794      -796       798       800
       872       874      -876       878      -880       884       885      1049
      1051      1099      1101      1103      1108      1181      1183      1753
      1755      1795      1797     -1799      1801      1803      1804      1806
     -1808      1812      1869      1871      1872      1874      1875      1915
      1916      1918      1920     -1922      1926      1927      1930      1932
      1985     -1987      1993      1994      1997
cmsel,s,_FIXEDSU
d,all,all
nsel,all
/com,*********** Define Force Using Surface Effect Elements ***********
local,12,0,0.,0.,0.,0.,0.,0.
csys,0
et,8,154
MAT,8 $ TYPE,8 $ REAL,8 $ SECNUM,8 $ ESYS,12    ! ELEMNODES = 8
eblock,21,COMPACT,,24
(21i9)
     6641     2567     2568     2964     2964     5200     5207     2964     5202
     6642     2565     2564     2968     2968     5190     5192     2968     5195
     6643     2434     2566     2968     2968     4351     5198     2968     4353
     6644     2425     2421     2966     2966     4247     4253     2966     4288
     6645     2560     2425     2966     2966     4287     4288     2966     5172
     6646     2568     2965     2967     2967     5208     6999     2967     5209
     6647     2434     2430     2566     2566     4318     4321     2566     4351
     6648     2561     2560     2966     2966     5171     5172     2966     5176
     6649     2964     2561     2966     2966     5175     5176     2966     6996
     6650     2965     2563     2967     2967     5187     5188     2967     6999
     6651     2967     2562     2964     2964     5181     5180     2964     6997
     6652     2968     2564     2965     2965     5192     5191     2965     7000
     6653     2567     2964     2966     2966     5202     6996     2966     5203
     6654     2569     2434     2968     2968     4352     4353     2968     5214
     6655     2965     2569     2968     2968     5213     5214     2968     7000
     6656     2964     2568     2967     2967     5207     5209     2967     6997
     6657     2566     2565     2968     2968     5194     5195     2968     5198
     6658     2424     2425     2560     2560     4272     4287     2560     4281
     6659     2421     2567     2966     2966     4251     5203     2966     4253
     6660     2562     2561     2964     2964     5174     5175     2964     5180
! ... 5 like lines cut
secnum,1    ! reset the section ID to default
esel,s,type,,8
keyop,8,2,1         ! Apply load in local coordinate system
keyop,8,7,1         ! Use original area so load is constant in large deformation
esel,all
/gst,on,on
fini
*get,_numnode,node,0,count
*get,_numelem,elem,0,count
*get, _MAXELEMNUM, elem, 0, NUM, MAX
*get, _MAXNODENUM, node, 0, NUM, MAX
*get, _MAXELEMTYPE, etyp, 0, NUM, MAX
*get, _MAXREALCONST, rcon, 0, NUM, MAX
/go
/wb,load,end               !  done creating loads
/com,--- Number of total nodes = %_numnode%
/com,--- Number of contact elements = 212
/com,--- Number of spring elements = 0
/com,--- Number of bearing elements = 0
/com,--- Number of solid elements = 3860
/com,--- Number of condensed parts = 0
/com,--- Number of total elements = %_numelem%
*get,_wallbsol,active,,time,wall
/com,****************************************************************************
/com,*************************    SOLUTION       ********************************
/com,****************************************************************************
/solu
antype,0                   ! static analysis
_thickRatio=0.333   ! Ratio of thick parts in the model
eqsl,sparse,,,,,1
cntr,print,1               ! print out contact info and also make no initial contact an error
cncheck,dmp		!	Enable program controlled contact splitting for distributed memory parallel run
dmpoption,emat,no             ! Don't combine emat file for DANSYS
dmpoption,esav,no             ! Don't combine esav file for DANSYS
nldiag,cont,iter           ! print out contact info each equilibrium iteration
rescontrol,,none                 ! Do not keep any restart files
/com,****************************************************
/com,******************* SOLVE FOR LS 1 OF 1 ****************
esel,s,type,,8
nsle
sfe,all,1,pres,1,8.28439250220337e-011
sfe,all,2,pres,1,105622.12890902
sfe,all,3,pres,1,1.58818977281869e-003
nsel,all
esel,all
/nopr
/gopr
nsub,1,1,1
time,1.
outres,erase
outres,all,none
outres,nsol,all,
outres,rsol,all
outres,eangl,all
outres,etmp,all
outres,veng,all
outres,strs,all,
outres,epel,all,
outres,eppl,all,
outres,cont,all,
! *********** WB SOLVE COMMAND ***********
! check interactive state
*get,ANSINTER_,active,,int
*if,ANSINTER_,ne,0,then
/eof
*endif
solve
/com *************** Write FE CONNECTORS ********* 
CEWRITE,file,ce,,INTE
/com,****************************************************
/com,*************** FINISHED SOLVE FOR LS 1 *************
fini
*get,_wallasol,active,,time,wall
/nopr
*get,_numnode,node,0,count
*get,_numelem,elem,0,count
*get, _MAXELEMNUM, elem, 0, NUM, MAX
*get, _MAXNODENUM, node, 0, NUM, MAX,,,INTERNAL
*get, _MAXELEMTYPE, etyp, 0, NUM, MAX
*get, _MAXREALCONST, rcon, 0, NUM, MAX
*get,_NSOLTHREADS,active,0,ntfs
*get,_NSOLPROCESSES,active,0,npfs
/gopr
/post1
xmlo,ENCODING,ISO-8859-1
xmlo,parm
/xml,parm,xml
fini
/gopr
*get,_walldone,active,,time,wall
_preptime=(_wallbsol-_wallstrt)*3600
_solvtime=(_wallasol-_wallbsol)*3600
_posttime=(_walldone-_wallasol)*3600
_totaltim=(_walldone-_wallstrt)*3600
*get,_dlbratio,active,0,solu,dlbr
*get,_combtime,active,0,solu,comb
*get,_ssmode,active,0,solu,ssmm
*get,_ndofs,active,0,solu,ndof
*get,_sol_end_time,active,0,set,time
*if,_sol_end_time,eq,1.000000,then
/fclean				!clean distributed files
*endif
/com,--- Total number of nodes = %_numnode%
/com,--- Total number of elements = %_numelem%
/com,--- Element load balance ratio = %_dlbratio%
/com,--- Time to combine distributed files = %_combtime%
/com,--- Sparse memory mode = %_ssmode%
/com,--- Number of DOF = %_ndofs%
/wb,file,end               ! done with WB generated input
